Circuit: * C:\Users\fest1\OneDrive\Alt\Skrivebord\ntnu\2\IELEG2003\lab\Draft4.asc

.OP point found by inspection.

Date: Wed Sep 13 15:07:49 2023
Total elapsed time: 3.490 seconds.

tnom = 27
temp = 27
method = modified trap
totiter = 2774650
traniter = 2774650
tranpoints = 913634
accept = 616522
rejected = 297112
matrix size = 7
fillins = 0
solver = Normal
Avg thread counts: 1.0/1.0/1.0/1.0
Matrix Compiler1:      15 opcodes  0.2/[0.1]/0.2
Matrix Compiler2: 467 bytes object code size  0.1/0.2/[0.1]

